16
Properties=species:S:1:pos:R:3:hirshfeld:R:1:aims_charges:R:1:forces:R:3 energy=-136039.266644265 pbc="F F F"
Na      -1.57025929       2.09152721       0.20665713       0.40634920       0.39077688      -1.09025346      -1.66375736      -2.35219602
Na       0.25861713      -1.93131244       1.13646381       0.35749551       0.33628211       1.29844306      -0.58597603       0.33224312
Na      -0.69637596      -0.61316269      -1.42184077       0.24433074       0.23388324       0.39208738       0.09526997      -0.00655667
Na       1.60360268       2.46828445       2.58298322       0.39661947       0.38820031       0.42735361       0.24576172      -0.18077450
Na      -0.98895698       0.66036876       3.22617905       0.43188601       0.41537685      -0.53432749      -0.26116481      -0.21387012
Na      -1.71480785      -4.02274210      -2.99436911       0.37863963       0.35109549      -0.58377784      -1.12455255      -0.06561150
Na       1.68469339       3.94290409      -0.22449726       0.45697911       0.43442427       0.12456466       0.74717933      -0.17247912
Na       2.78157078       0.81974136      -0.47651456       0.30600133       0.28665159       0.77149811      -0.98936286      -0.02892681
Cl       3.78858808       2.79018279       0.50232235      -0.35581600      -0.33431212       0.16558628       0.74879601       0.78625054
Cl       1.39405545       0.01511641       2.76755138      -0.31094904      -0.29046100       0.13042545      -0.29438791       0.23374682
Cl      -1.92916780      -1.12440196       1.04919669      -0.31902050      -0.30510394      -0.93295644       1.14093569       0.20447359
Cl      -1.01058743       3.19374501       1.97729464      -0.32240698      -0.30263524       1.02787241       1.44473546       2.69764155
Cl       0.68909160       1.86924935      -0.98196578      -0.24852426      -0.23510940      -1.37460123       0.19646900      -0.68161131
Cl       1.77719260      -1.41438218      -0.85477536      -0.34718076      -0.32721250      -0.02463932      -0.63761016      -0.15571836
Cl      -2.17887191      -1.62127244      -2.99493640      -0.41759457      -0.39453472      -0.31498812       0.33624628      -0.40722167
Cl      -3.11847682      -6.32719929      -2.89419547      -0.65946695      -0.64732182       0.51771293       0.60141821       0.01061048
16
Properties=species:S:1:pos:R:3:hirshfeld:R:1:aims_charges:R:1:forces:R:3 energy=-136040.99319727 pbc="F F F"
Na       2.59411273       2.88972986      -2.39328307       0.35362381       0.33013813       0.44209983      -0.52167816      -0.75077856
Na       3.74295519       1.54363770       0.25357271       0.34739844       0.33711118       0.27675248       0.02585792      -0.19574188
Na      -3.79608755      -0.55916435       1.29304719       0.34373994       0.32258105      -0.53336492      -0.01892823       0.61223316
Na       0.07247452       2.60220613      -0.05326254       0.39670401       0.38648397       0.14889417      -0.20891597      -0.14620765
Na      -3.64321424      -3.72930319       1.95349036       0.51665901       0.49231894       0.07556643      -0.38060515      -0.23419770
Na      -2.60778120      -1.40218323      -1.40459872       0.43304565       0.42171233       1.91248289       0.46494445      -0.89828017
Na      -0.59137519      -0.63609634       1.44102715       0.25854809       0.26106408       1.09180440       0.06549568      -0.32639066
Na       2.08244732      -0.82663274      -0.61910252       0.25710178       0.24074813       0.03623937      -0.75019928      -1.78061532
Cl       2.31353579      -0.20543482       1.59529786      -0.34935956      -0.33606438      -0.11590950       0.61666275       1.36542939
Cl      -2.37310048       1.33352555       0.87767295      -0.33558031      -0.31954824       0.62261561       0.54917671      -0.44554643
Cl      -0.00978280      -2.44457313      -0.62580937      -0.39520655      -0.38743074      -0.71154029       0.23188322       0.02614581
Cl      -4.27202897      -2.49796558      -0.27133519      -0.32279165      -0.29868408      -1.42751059      -0.81557589       0.54785916
Cl       2.54445293       3.88998965      -0.15896673      -0.36712897      -0.34775142      -0.31583246       0.21923233       0.57318965
Cl      -2.12265258      -1.98074262       2.75675471      -0.32769686      -0.30970910      -0.51942599      -0.23008804       0.80095790
Cl       4.31002198       0.69830632      -2.36301356      -0.46082726      -0.45116068       0.03123816       0.29192078       0.63035770
Cl       0.94585469       0.95159309      -2.13067008      -0.35063593      -0.34180918      -1.01410958       0.46081686       0.22158559
