3
Properties=species:S:1:pos:R:3:momenta:R:3:forces:R:3 energy=2.5639151305422407 pbc="F F F"
O        0.00006637      -0.00003208       0.14063645       0.00573448      -0.00213928       0.19549102      -0.00338757       0.00113736      -4.37822229
H       -0.00081654       0.98864644      -0.64585775      -0.00245182       0.14615168      -0.09701443       0.00246693      -2.78782607       2.18845315
H       -0.00026816      -0.98829268      -0.64631725      -0.00328265      -0.14401240      -0.09847658       0.00092064       2.78668871       2.18976915
