3
Properties=species:S:1:pos:R:3:momenta:R:3:forces:R:3 energy=-2079.6566902296663 pbc="F F F"
O        0.00000000       0.00000000       0.11926200       0.00000000       0.00000000       0.00000000       0.00000057       0.00000016      -0.43445181
H        0.00000000       0.76323900      -0.47704700       0.00000000       0.00000000       0.00000000      -0.00000000      -0.14634362       0.21323780
H        0.00000000      -0.76323900      -0.47704700       0.00000000       0.00000000       0.00000000      -0.00000000       0.14634254       0.21323800
3
Properties=species:S:1:pos:R:3:momenta:R:3:forces:R:3 energy=-2077.220267476729 pbc="F F F"
O        0.00001340       0.00003376       0.14062177       0.00204545      -0.00190556       0.19353834      -0.00176496       0.00012764      -6.80832423
H        0.00031226       0.98804306      -0.64611984      -0.00019882       0.14491026      -0.09744619      -0.00157734      -4.82928674       3.40002917
H       -0.00069276      -0.98796211      -0.64631306      -0.00184663      -0.14300470      -0.09609215       0.00333853       4.82915409       3.40091341
3
Properties=species:S:1:pos:R:3:momenta:R:3:forces:R:3 energy=-2076.559278203048 pbc="F F F"
O        0.00044289       0.00042972       0.10985288       0.00294041       0.00037620      -0.19384431      -0.01479564      -0.01426322      -2.05702086
H       -0.00488421       1.15549812      -0.39604789      -0.00088430      -0.02189104       0.09704692       0.01589117      -6.10090011       1.00495354
H       -0.00172232      -1.15908249      -0.40440495      -0.00205611       0.02151484       0.09679739      -0.00078698       6.11519849       1.05146797
3
Properties=species:S:1:pos:R:3:momenta:R:3:forces:R:3 energy=-2079.0780367883276 pbc="F F F"
O        0.00032466       0.00009800       0.09110051       0.00066410      -0.03173989      -0.37967915       0.02105765      -0.03840353       2.08515218
H       -0.00443699       0.91282906      -0.24854134      -0.00148205      -0.16947524       0.18485605      -0.00772227      -1.79744191      -1.05522750
H       -0.00171148      -0.91104267      -0.25473935       0.00081796       0.20121513       0.19482309      -0.01302498       1.83514692      -1.03052123
3
Properties=species:S:1:pos:R:3:momenta:R:3:forces:R:3 energy=-2076.381543633317 pbc="F F F"
O        0.00043801      -0.00012845       0.09621432       0.00240885       0.01124915       0.05306393      -0.00590857       0.01384379      -0.44592949
H       -0.00662123       1.18656455      -0.28808749      -0.00109210       0.36414309      -0.02132236       0.01385076      -6.31820788       0.20102131
H       -0.00253137      -1.18045558      -0.29661975      -0.00131675      -0.37539224      -0.03174157      -0.00802938       6.30368844       0.24293836
3
Properties=species:S:1:pos:R:3:momenta:R:3:forces:R:3 energy=-2078.367838807024 pbc="F F F"
O        0.00031671       0.00025860       0.08375659      -0.00849686       0.00895871      -0.60561516       0.01371130      -0.09410397       1.03416419
H       -0.00515479       1.00855786      -0.18884862       0.00450904      -0.68607092       0.29996634       0.00074336      -4.31248317      -0.54913401
H       -0.00153095      -1.00867996      -0.19842360       0.00398782       0.67711221       0.30564882      -0.01456404       4.40625554      -0.48164181
3
Properties=species:S:1:pos:R:3:momenta:R:3:forces:R:3 energy=-2076.777498951103 pbc="F F F"
O        0.00029453      -0.00004801       0.08008090       0.00021105      -0.01109245       0.09433034       0.00805169       0.04110961       0.64457795
H       -0.00543121       1.15309420      -0.16165652      -0.00325149       0.71858317      -0.05070816       0.00951123      -6.32584051      -0.33262227
H       -0.00046819      -1.14735707      -0.16818222       0.00304044      -0.70749073      -0.04362219      -0.01785236       6.28481695      -0.30719598
3
Properties=species:S:1:pos:R:3:momenta:R:3:forces:R:3 energy=-2076.9144941660606 pbc="F F F"
O        0.00005268      -0.00006878       0.07389251      -0.01063925       0.00902387      -0.45780912       0.00727962       0.08951665       0.76115504
H       -0.00449316       1.13978958      -0.11547633       0.00852678      -0.73436295       0.22444125       0.01064944      -6.25423104      -0.37516912
H        0.00073251      -1.13252454      -0.11710910       0.00211246       0.72533908       0.23336787      -0.01810875       6.16474550      -0.38368474
3
Properties=species:S:1:pos:R:3:momenta:R:3:forces:R:3 energy=-2077.658841607259 pbc="F F F"
O       -0.00030466       0.00062990       0.06452048      -0.01275846       0.00491444      -0.07606685      -0.00894436      -0.13440378       0.68607188
H       -0.00079171       1.06395414      -0.04118071       0.00551162       0.79682632       0.03794749       0.01390758      -5.05693953      -0.35315575
H        0.00305867      -1.06799459      -0.04150986       0.00724685      -0.80174077       0.03811936      -0.00481641       5.19126994      -0.33651882
3
Properties=species:S:1:pos:R:3:momenta:R:3:forces:R:3 energy=-2075.5681543277487 pbc="F F F"
O       -0.00066175       0.00036904       0.06010883      -0.00513230      -0.00932813      -0.24792595      -0.03339181      -0.00799655       0.50918130
H        0.00154542       1.23216191      -0.00690799       0.00255630      -0.43666811       0.12382581       0.02876178      -6.78871489      -0.25248639
H        0.00588433      -1.23277887      -0.00576056       0.00257600       0.44599624       0.12410014       0.00479216       6.79669651      -0.25810076
3
Properties=species:S:1:pos:R:3:momenta:R:3:forces:R:3 energy=-2078.2624470951996 pbc="F F F"
O       -0.00084407       0.00025113       0.05173214      -0.01539919       0.01217673      -0.27012178      -0.06799683       0.05185483      -0.10270798
H        0.00288813       0.98354999       0.06036531       0.00636708       0.37114900       0.13519254       0.03889460      -2.40523718       0.05154023
H        0.00686292      -0.98192628       0.06041580       0.00903211      -0.38332574       0.13492924       0.02960905       2.35336796       0.05193453
3
Properties=species:S:1:pos:R:3:momenta:R:3:forces:R:3 energy=-2075.1718225061236 pbc="F F F"
O       -0.00141176       0.00057560       0.04366959      -0.01481231       0.00578267      -0.19772379      -0.09359508      -0.01835332      -0.68492125
H        0.00666016       1.26086497       0.12339994       0.00670033      -0.01577879       0.09616755       0.06339504      -6.78616919       0.35033852
H        0.01271050      -1.26367940       0.12578320       0.00811199       0.00999612       0.10155624       0.03051072       6.80449644       0.33526523
3
Properties=species:S:1:pos:R:3:momenta:R:3:forces:R:3 energy=-2079.5944550357913 pbc="F F F"
O        0.00005302       0.00003595       0.12070813       0.00112070       0.00271130      -0.67878072      -0.00062041       0.04587383      -1.86191769
H       -0.00007169       0.79476950      -0.48763146      -0.00264947      -0.40847809       0.33976630       0.00017674      -1.40706271       0.94407985
H       -0.00022365      -0.79370951      -0.48654585       0.00152876       0.40576679       0.33901443       0.00042933       1.36121531       0.90825175
3
Properties=species:S:1:pos:R:3:momenta:R:3:forces:R:3 energy=-2078.375927944319 pbc="F F F"
O       -0.00156581       0.00039370       0.04001589      -0.01188761      -0.02542096      -0.17847628      -0.14024760      -0.10174707      -1.26773250
H        0.00824142       0.97391312       0.15168820       0.00471121      -0.36017915       0.09000364       0.07783615      -2.24196842       0.64529442
H        0.01379092      -0.97483954       0.15456076       0.00717640       0.38560011       0.08847264       0.06335224       2.34367250       0.62560768
3
Properties=species:S:1:pos:R:3:momenta:R:3:forces:R:3 energy=-2075.9140469867134 pbc="F F F"
O       -0.00275187      -0.00000434       0.02777987      -0.03146552       0.00277750      -0.35180674      -0.08103179       0.02207528      -0.82753859
H        0.01465726       1.21901166       0.24896285       0.01120007       0.40486627       0.17212387       0.06897534      -6.55488921       0.42188883
H        0.02495687      -1.21300126       0.25366424       0.02026545      -0.40764377       0.17968287       0.01412003       6.53274073       0.40269469
3
Properties=species:S:1:pos:R:3:momenta:R:3:forces:R:3 energy=-2078.0378469491257 pbc="F F F"
O       -0.00268389       0.00038600       0.02625897       0.02003008       0.01289273       0.12700959      -0.08865953      -0.03676442      -0.95795768
H        0.01451120       1.04059357       0.26000143      -0.00855320      -0.80191153      -0.06338419       0.07071535      -4.88319117       0.49589355
H        0.02517304      -1.03942984       0.26672142      -0.01147688       0.78901881      -0.06362540       0.01969721       4.91978025       0.45606480
3
Properties=species:S:1:pos:R:3:momenta:R:3:forces:R:3 energy=-2077.3210337420805 pbc="F F F"
O       -0.00333257       0.00007976       0.01577067      -0.04530222      -0.01919524      -0.61793200      -0.00563591       0.02186930      -0.07449638
H        0.01797652       1.11125706       0.34253637       0.01513022       0.69694805       0.30784089       0.04263792      -6.03819160       0.05285560
H        0.03258560      -1.10647970       0.34973787       0.03017201      -0.67775281       0.31009111      -0.03620436       6.01602069       0.02049518
3
Properties=species:S:1:pos:R:3:momenta:R:3:forces:R:3 energy=-2077.337239498021 pbc="F F F"
O       -0.00356593      -0.00035588       0.01008534       0.03480607      -0.00478940       0.28311685       0.03495364       0.09308110       0.45702970
H        0.01824124       1.11271032       0.38788520      -0.01579176      -0.71367820      -0.13795365       0.02635012      -6.07733079      -0.22521834
H        0.03483594      -1.10077325       0.39399926      -0.01901430       0.71846760      -0.14516320      -0.06175622       5.98390856      -0.22895385
3
Properties=species:S:1:pos:R:3:momenta:R:3:forces:R:3 energy=-2078.717805607004 pbc="F F F"
O       -0.00326048       0.00057842       0.00840382      -0.04188705       0.02158411      -0.75994964      -0.00384833      -0.20882887      -0.03481735
H        0.01462199       0.97522804       0.39855991       0.00869006       0.65259768       0.37279572       0.04564419      -4.19454451       0.08544959
H        0.03385848      -0.97795594       0.40967615       0.03319699      -0.67418179       0.38715392      -0.04490133       4.40365216      -0.04830499
3
Properties=species:S:1:pos:R:3:momenta:R:3:forces:R:3 energy=-2076.8836598185494 pbc="F F F"
O       -0.00401442       0.00047163      -0.00533033       0.01895064      -0.00714104       0.18803730       0.14480626      -0.02006286       2.27879343
H        0.01617371       1.12790204       0.50674488      -0.00813956      -0.39286577      -0.09251907      -0.00176257      -6.02871994      -1.10189749
H        0.04309798      -1.12974134       0.51951282      -0.01081109       0.40000680      -0.09551823      -0.14624557       6.05015861      -1.17723435
3
Properties=species:S:1:pos:R:3:momenta:R:3:forces:R:3 energy=-2079.3761195346547 pbc="F F F"
O       -0.00317597      -0.00012925       0.00377836      -0.02044203      -0.02985134      -0.46326760      -0.07834414       0.13923492      -1.23600290
H        0.01123113       0.87814949       0.43762046       0.00311818       0.26338270       0.23281366       0.05903529      -1.75610769       0.58681648
H        0.03529283      -0.86965089       0.44589714       0.01732384      -0.23353137       0.23045394       0.01702911       1.61888381       0.64577918
3
Properties=species:S:1:pos:R:3:momenta:R:3:forces:R:3 energy=-2076.864193023114 pbc="F F F"
O       -0.00421180      -0.00020965      -0.01692704      -0.00094483       0.01078043      -0.11080083       0.21582694       0.03640341       3.90311990
H        0.01349857       1.10836395       0.59960319      -0.00348727      -0.04336642       0.05017532      -0.01883549      -5.78275844      -1.91831596
H        0.04829902      -1.09754837       0.61331342       0.00443210       0.03258599       0.06062551      -0.20048148       5.74810250      -1.99022714
3
Properties=species:S:1:pos:R:3:momenta:R:3:forces:R:3 energy=-2079.533691779094 pbc="F F F"
O       -0.00331973       0.00012293      -0.00300735       0.01397738      -0.00996047       0.19033395      -0.02778682      -0.14487090      -0.55283221
H        0.00851718       0.84241383       0.48852825      -0.00474472      -0.31418770      -0.09031903       0.03961870      -1.26589790       0.33001035
H        0.03844978      -0.83741000       0.50185253      -0.00923267       0.32414817      -0.10001491      -0.01277176       1.41273273       0.22320986
3
Properties=species:S:1:pos:R:3:momenta:R:3:forces:R:3 energy=-2077.610665560198 pbc="F F F"
O        0.00014438       0.00017492       0.13541256       0.00168937       0.00462653       0.53823647      -0.00330857      -0.01306051      -6.20847751
H       -0.00142950       0.97865805      -0.60361549      -0.00335629       0.42039635      -0.26847702       0.00755787      -4.89993333       3.09783368
H        0.00092848      -0.98080843      -0.60405326       0.00166693      -0.42502288      -0.26975945      -0.00425027       4.91300439       3.10197703
3
Properties=species:S:1:pos:R:3:momenta:R:3:forces:R:3 energy=-2077.2790651627674 pbc="F F F"
O       -0.00447778      -0.00059396      -0.02384599      -0.02657023      -0.01268135      -0.49886657       0.26981052       0.06826114       5.11272203
H        0.01205913       1.04920133       0.65511258       0.00662827       0.29017965       0.24915835      -0.03254640      -5.42268291      -2.52594546
H        0.05209949      -1.03275054       0.66680742       0.01994195      -0.27749830       0.24970822      -0.23950137       5.35407814      -2.58462196
3
Properties=species:S:1:pos:R:3:momenta:R:3:forces:R:3 energy=-2079.324037896407 pbc="F F F"
O       -0.00384973      -0.00057648      -0.01292419       0.03946773       0.02735616       0.73711248       0.13711147       0.22202599       2.66208919
H        0.01010401       0.87205886       0.56921192      -0.00999813      -0.66246317      -0.37056223      -0.01093315      -3.18536740      -1.37456752
H        0.04453588      -0.85599617       0.57801172      -0.02946959       0.63510701      -0.36655025      -0.12676991       2.96298403      -1.28133678
3
Properties=species:S:1:pos:R:3:momenta:R:3:forces:R:3 energy=-2078.0352750237776 pbc="F F F"
O       -0.00445747       0.00020520      -0.02529065      -0.04340902      -0.00496587      -0.84100511       0.29532307      -0.02670370       5.61149465
H        0.01194434       0.96271953       0.66199718       0.00969814       0.52854166       0.41543301      -0.04500889      -4.81553165      -2.73798003
H        0.05258191      -0.95895066       0.68185065       0.03371088      -0.52357579       0.42557210      -0.25068039       4.84071394      -2.86587050
3
Properties=species:S:1:pos:R:3:momenta:R:3:forces:R:3 energy=-2078.617281708733 pbc="F F F"
O       -0.00424069       0.00003603      -0.02277847       0.04788280      -0.00559859       0.88494992       0.27482736      -0.04195594       5.21161721
H        0.01165693       0.91279324       0.64416801      -0.00993909      -0.65310239      -0.43370444      -0.04412205      -4.24887251      -2.53730525
H        0.05083123      -0.90705906       0.66201717      -0.03794371       0.65870098      -0.45124548      -0.23033299       4.28913126      -2.66713659
3
Properties=species:S:1:pos:R:3:momenta:R:3:forces:R:3 energy=-2078.8967964105072 pbc="F F F"
O       -0.00427892      -0.00078728      -0.02197220      -0.05133850      -0.01309706      -0.98946202       0.25629852       0.14428396       4.92685054
H        0.01137104       0.88849197       0.64095489       0.01087797       0.64412386       0.48713862      -0.04567392      -3.88886475      -2.46567587
H        0.04988482      -0.87166743       0.65204264       0.04046053      -0.63102680       0.50232340      -0.20947897       3.74291815      -2.45433245
3
Properties=species:S:1:pos:R:3:momenta:R:3:forces:R:3 energy=-2077.8152656767884 pbc="F F F"
O       -0.00447884      -0.00066720      -0.03011171       0.04294071       0.01734895       0.70850684       0.32439470       0.06705296       6.32105433
H        0.01209472       0.96429827       0.70111369      -0.01024767      -0.48483391      -0.35731417      -0.05608776      -4.76804821      -3.11276010
H        0.05481287      -0.94966306       0.71901870      -0.03269304       0.46748496      -0.35119267      -0.26748241       4.69910330      -3.20083272
3
Properties=species:S:1:pos:R:3:momenta:R:3:forces:R:3 energy=-2079.5074068344215 pbc="F F F"
O       -0.00356860      -0.00067932      -0.01630780      -0.02858498      -0.03008830      -0.77524923       0.12822288       0.01956903       2.65379151
H        0.00728143       0.81935546       0.59161180       0.00068301       0.54812937       0.38366610      -0.01620540      -2.05754733      -1.29495408
H        0.04446751      -0.80564601       0.61036197       0.02790197      -0.51804107       0.39158314      -0.11003399       2.03609339      -1.35031359
3
Properties=species:S:1:pos:R:3:momenta:R:3:forces:R:3 energy=-2077.2660301396504 pbc="F F F"
O       -0.00400464      -0.00143098      -0.03290184       0.02342602      -0.00681020       0.36548337       0.28953266       0.11239495       6.47191675
H        0.00691610       1.00971884       0.72082758      -0.00653512      -0.21114927      -0.17972437      -0.02903310      -5.00245080      -3.17622459
H        0.05344407      -0.98487783       0.74311711      -0.01689091       0.21795946      -0.18575901      -0.26000644       4.88815621      -3.28902744
3
Properties=species:S:1:pos:R:3:momenta:R:3:forces:R:3 energy=-2079.651078745287 pbc="F F F"
O       -0.00288894      -0.00099830      -0.01117713       0.00096263       0.03208056      -0.15244063       0.00761776       0.00266510       0.15821946
H        0.00243448       0.79186582       0.54777354      -0.00509610       0.15049590       0.05363425       0.00787560      -0.47152337      -0.06866507
H        0.03952857      -0.77546376       0.57142453       0.00413348      -0.18257646       0.09880637      -0.01406845       0.46773611      -0.08181183
3
Properties=species:S:1:pos:R:3:momenta:R:3:forces:R:3 energy=-2077.108528944331 pbc="F F F"
O       -0.00346076      -0.00089442      -0.03047883       0.00747912      -0.00421737      -0.03628933       0.23182533       0.07807855       6.00008037
H        0.00218616       1.03439296       0.69099738      -0.00132971       0.08586238       0.01080257       0.00026187      -5.20037978      -2.89354962
H        0.04851248      -1.01868453       0.73354475      -0.00614941      -0.08164501       0.02548676      -0.23236758       5.12067136      -3.10079162
3
Properties=species:S:1:pos:R:3:momenta:R:3:forces:R:3 energy=-2079.1177446957045 pbc="F F F"
O        0.00017364       0.00028622       0.12303162       0.00171014      -0.00780427      -0.98738740      -0.00607701      -0.06893351      -3.90096786
H       -0.00242646       0.87326544      -0.50513102      -0.00140396      -0.60918994       0.49041714       0.00953141      -3.52811834       1.92515681
H        0.00077831      -0.87667585      -0.50563252      -0.00030618       0.61699421       0.49697026      -0.00345306       3.59699827       1.96779713
3
Properties=species:S:1:pos:R:3:momenta:R:3:forces:R:3 energy=-2079.599693296473 pbc="F F F"
O       -0.00229748      -0.00101239      -0.00915906       0.03639218      -0.04083588       0.55269924       0.01967581      -0.10851528       0.50412385
H       -0.00043120       0.82494769       0.52540391      -0.00668955      -0.29630272      -0.25984133       0.01852930      -1.25500821      -0.18035004
H        0.03292134      -0.80658207       0.56025981      -0.02970264       0.33713860      -0.29285791      -0.03765282       1.36473582      -0.31689815
3
Properties=species:S:1:pos:R:3:momenta:R:3:forces:R:3 energy=-2077.3690096934524 pbc="F F F"
O       -0.00215548      -0.00204704      -0.02324401       0.00843389      -0.00060123      -0.38807757       0.12514013       0.15486336       5.02462582
H       -0.00407113       1.05379128       0.63210603      -0.00743776       0.39592278       0.17475515       0.03538600      -5.45981552      -2.39789777
H        0.03384536      -1.01833794       0.67661063      -0.00099612      -0.39532155       0.21332242      -0.16130427       5.30653124      -2.62443387
3
Properties=species:S:1:pos:R:3:momenta:R:3:forces:R:3 energy=-2079.1226508826994 pbc="F F F"
O       -0.00138655      -0.00131335      -0.00905107       0.03788678       0.03383242       0.91442278       0.03836950       0.01034509       2.30994825
H       -0.00805321       0.91828327       0.51807657      -0.00681839      -0.64166459      -0.45213021       0.04615533      -3.76769607      -1.03935818
H        0.02336195      -0.89421507       0.56632668      -0.03106840       0.60783217      -0.46229257      -0.08500015       3.76277301      -1.27099133
3
Properties=species:S:1:pos:R:3:momenta:R:3:forces:R:3 energy=-2077.994288808371 pbc="F F F"
O       -0.00055607      -0.00194643      -0.01142298       0.02049293      -0.03714150      -0.58127023       0.01242866       0.13639803       3.32706199
H       -0.01546271       1.03559284       0.53216524      -0.02148510       0.68749992       0.27114863       0.08453924      -5.47155650      -1.51871570
H        0.01880912      -1.00276021       0.58978785       0.00099217      -0.65035843       0.31012160      -0.09705465       5.34103048      -1.81104386
3
Properties=species:S:1:pos:R:3:momenta:R:3:forces:R:3 energy=-2078.053991069372 pbc="F F F"
O        0.00008814      -0.00223362      -0.00707609       0.01651317       0.02243985       0.82678938      -0.01729024       0.20276068       2.63989667
H       -0.01994668       1.04331607       0.49796299       0.00478952      -0.63911012      -0.39574193       0.09808370      -5.54058515      -1.19467090
H        0.01362103      -1.00538999       0.55484583      -0.02130268       0.61667027      -0.43104745      -0.08044105       5.34260171      -1.44852665
3
Properties=species:S:1:pos:R:3:momenta:R:3:forces:R:3 energy=-2078.697010722567 pbc="F F F"
O        0.00082234      -0.00079268       0.00282090       0.03749296       0.00933075      -0.48907066      -0.01338326      -0.20420525       0.80135744
H       -0.02284882       0.98419671       0.41554727      -0.02579364       0.75701819       0.21297368       0.07057645      -4.46243936      -0.20073366
H        0.00470808      -0.96842350       0.48007713      -0.01169932      -0.76634894       0.27609699      -0.05602448       4.66617891      -0.60246419
3
Properties=species:S:1:pos:R:3:momenta:R:3:forces:R:3 energy=-2076.884569584846 pbc="F F F"
O        0.00164804      -0.00109936      -0.00057427       0.00761085       0.00178673       0.51075332      -0.05935740       0.00822242       1.64300850
H       -0.02915566       1.14508234       0.43624658       0.00729828      -0.40009848      -0.24152163       0.10167380      -6.12008825      -0.60888766
H       -0.00252109      -1.12535902       0.51274332      -0.01490913       0.39831175      -0.26923169      -0.04150056       6.10827744      -1.03198575
3
Properties=species:S:1:pos:R:3:momenta:R:3:forces:R:3 energy=-2078.958198417103 pbc="F F F"
O        0.00190588      -0.00128944       0.01627225       0.03986068      -0.01386929      -0.08306437       0.10694291       0.17192888      -1.80950092
H       -0.02477498       0.94395538       0.31164606      -0.01388238       0.46291089       0.02707674      -0.03152683      -2.50023922       0.93806982
H       -0.01025615      -0.92000432       0.37125290      -0.02597830      -0.44904160       0.05598763      -0.07425799       2.32146499       0.87191724
3
Properties=species:S:1:pos:R:3:momenta:R:3:forces:R:3 energy=-2076.065349301682 pbc="F F F"
O        0.00318963      -0.00098666       0.01101942       0.01081978       0.02594972       0.20283389      -0.01995188      -0.00501397       0.22315556
H       -0.03248771       1.21800442       0.34270381       0.00313357      -0.04393803      -0.10415284       0.03488060      -6.33789706       0.10420045
H       -0.02275707      -1.19836048       0.42449977      -0.01395336       0.01798831      -0.09868105      -0.01600431       6.33862805      -0.32708264
3
Properties=species:S:1:pos:R:3:momenta:R:3:forces:R:3 energy=-2078.711322960741 pbc="F F F"
O        0.00269994      -0.00037225       0.02664517       0.00289063      -0.03142740       0.36294915       0.24566896      -0.29039191      -2.14892054
H       -0.02316879       0.95056174       0.22636059       0.00969424      -0.20735021      -0.17180534      -0.12752682      -1.80553161       1.16995410
H       -0.02446343      -0.93978672       0.29209147      -0.01258487       0.23877761      -0.19114381      -0.11818513       2.09609302       0.97605861
3
Properties=species:S:1:pos:R:3:momenta:R:3:forces:R:3 energy=-2078.3115050142737 pbc="F F F"
O        0.00015561       0.00008381       0.12558342       0.00224586       0.00213673       0.73619399      -0.01013443       0.03670093      -4.76820521
H       -0.00389706       0.95924308      -0.52732650      -0.00449744       0.65150772      -0.36862967       0.01854314      -4.84190739       2.40150310
H        0.00143775      -0.95677458      -0.52303855       0.00225158      -0.65364445      -0.36756433      -0.00834209       4.80518495       2.36070448
3
Properties=species:S:1:pos:R:3:momenta:R:3:forces:R:3 energy=-2075.855373394146 pbc="F F F"
O        0.00420271      -0.00127377       0.02631173       0.03543997       0.00248700       0.04571289       0.12895623       0.02147468      -0.79031902
H       -0.02829295       1.23322492       0.22111847      -0.00507600       0.38716022      -0.03572121      -0.10352953      -6.53192848       0.60628468
H       -0.04269467      -1.20819443       0.30306674      -0.03036397      -0.38964723      -0.00999168      -0.02867191       6.51151752       0.18124367
3
Properties=species:S:1:pos:R:3:momenta:R:3:forces:R:3 energy=-2077.943589044389 pbc="F F F"
O        0.00365857      -0.00048116       0.03609311      -0.04210061       0.04944378       0.44399219       0.22040431       0.08030424      -0.95156240
H       -0.02000152       1.04712794       0.14918437       0.02689315      -0.75940202      -0.20088059      -0.15943101      -4.68426549       0.62423242
H       -0.04228440      -1.03323141       0.21972162       0.01520745       0.70995824      -0.24311160      -0.06423324       4.60416697       0.32753627
3
Properties=species:S:1:pos:R:3:momenta:R:3:forces:R:3 energy=-2076.4744245598245 pbc="F F F"
O        0.00439722       0.00012323       0.04239178       0.05397404      -0.01853644       0.09539719       0.23821726      -0.06863641      -0.53228262
H       -0.01626673       1.16707872       0.09222950      -0.00090064       0.74249527      -0.07619410      -0.23563493      -6.43483319       0.50017854
H       -0.05735789      -1.16276348       0.17527869      -0.05307339      -0.72395883      -0.01920309      -0.00535363       6.50290532       0.03470070
3
Properties=species:S:1:pos:R:3:momenta:R:3:forces:R:3 energy=-2076.543497511053 pbc="F F F"
O        0.00443137      -0.00047153       0.04823089      -0.05384597      -0.00423873       0.25946451       0.26117594       0.08438544      -0.25418492
H       -0.01022263       1.16367404       0.04537253       0.02495456      -0.74331247      -0.10602009      -0.27747162      -6.47043326       0.36288731
H       -0.06348424      -1.15192576       0.13072106       0.02889141       0.74755119      -0.15344442       0.01388274       6.38562625      -0.10681220
3
Properties=species:S:1:pos:R:3:momenta:R:3:forces:R:3 energy=-2077.6762769647794 pbc="F F F"
O        0.00402996       0.00066901       0.05618039       0.05723164       0.04135420       0.26945863       0.26793267      -0.21250951       0.23610187
H       -0.00038884       1.05661756      -0.01616094       0.01270094       0.75649438      -0.16893144      -0.29549527      -4.84120821       0.07001612
H       -0.06721759      -1.06312731       0.06627935      -0.06993258      -0.79784857      -0.10052719       0.02518104       5.05358294      -0.30786718
3
Properties=species:S:1:pos:R:3:momenta:R:3:forces:R:3 energy=-2075.539287923294 pbc="F F F"
O        0.00494674       0.00113768       0.06314778      -0.02772402       0.00350063       0.12453985       0.32355074      -0.05988798       0.66713508
H        0.00533661       1.22688908      -0.07897072       0.01074249      -0.42202736      -0.04759348      -0.41628875      -6.71131270      -0.06657581
H       -0.08693116      -1.24195169       0.02070719       0.01698152       0.41852673      -0.07694637       0.09204159       6.77030969      -0.60163739
3
Properties=species:S:1:pos:R:3:momenta:R:3:forces:R:3 energy=-2078.423258995012 pbc="F F F"
O        0.00378709       0.00015954       0.06684942       0.02695252      -0.03432358       0.31931113       0.42128827       0.37479019       1.39574203
H        0.01024935       0.96671768      -0.09886220       0.01574342       0.31725151      -0.17767282      -0.29721993      -2.30498540      -0.58467305
H       -0.07447515      -0.96675154      -0.01707449      -0.04269594      -0.28292792      -0.14163831      -0.12578891       1.92676154      -0.81244186
3
Properties=species:S:1:pos:R:3:momenta:R:3:forces:R:3 energy=-2075.5428158570153 pbc="F F F"
O        0.00540238       0.00089928       0.07849445       0.00911099       0.03354378       0.18552564       0.18878192       0.02951694       0.87079456
H        0.01766339       1.23728463      -0.20303013       0.00789066      -0.00339057      -0.08984169      -0.42155850      -6.53094923      -0.15701973
H       -0.10685937      -1.24741437      -0.09753363      -0.01700165      -0.03015321      -0.09568395       0.23098456       6.49622568      -0.71229487
3
Properties=species:S:1:pos:R:3:momenta:R:3:forces:R:3 energy=-2078.624970267241 pbc="F F F"
O        0.00423638       0.00144556       0.07730192      -0.02458132      -0.01792125       0.04175332       0.32745932      -0.23992778       1.91487928
H        0.01799695       0.94820092      -0.18041918       0.00231828      -0.42744613      -0.00696887      -0.30503526      -2.28141760      -0.89242662
H       -0.08895477      -0.96600730      -0.09988613       0.02226304       0.44536738      -0.03478445      -0.02379889       2.51529597      -1.02018083
3
Properties=species:S:1:pos:R:3:momenta:R:3:forces:R:3 energy=-2076.3947944161396 pbc="F F F"
O        0.00575186       0.00089527       0.09170935       0.04528736       0.00021623       0.42721257      -0.00645904       0.05475147      -0.04892822
H        0.02618539       1.17464766      -0.30750225       0.01496409       0.41715137      -0.23515925      -0.39069868      -6.35941854       0.31698837
H       -0.12051857      -1.18480661      -0.20157146      -0.06025145      -0.41736760      -0.19205332       0.39472768       6.30643213      -0.26734145
3
Properties=species:S:1:pos:R:3:momenta:R:3:forces:R:3 energy=-2078.1878332058996 pbc="F F F"
O        0.00010388       0.00023695       0.12330960      -0.00480347       0.00556547      -0.88871481      -0.00603816       0.00693788      -4.39320178
H       -0.00384671       0.98005871      -0.50849002       0.00290481      -0.57943725       0.44907160       0.01886266      -5.04707741       2.20249676
H        0.00229999      -0.97955048      -0.50647009       0.00189866       0.57387178       0.43964321      -0.01275994       5.04005983       2.18767166
3
Properties=species:S:1:pos:R:3:momenta:R:3:forces:R:3 energy=-2078.3199007524863 pbc="F F F"
O        0.00518350       0.00103115       0.09060592      -0.06023675       0.02610364      -0.32125580       0.06855736       0.28213516       0.36111661
H        0.02642203       1.00999233      -0.29340318      -0.00938149      -0.80457100       0.19594027      -0.35478677      -4.99023544       0.08961174
H       -0.10994750      -1.02052642      -0.19892825       0.06961824       0.77846736       0.12531553       0.28464822       4.71415675      -0.45110449
3
Properties=species:S:1:pos:R:3:momenta:R:3:forces:R:3 energy=-2077.717479899637 pbc="F F F"
O        0.00593357       0.00289071       0.09996656       0.07684828       0.02482675       0.71001898      -0.13407042      -0.16471488      -0.95813162
H        0.03170143       1.04875526      -0.37031286       0.02298981       0.65994729      -0.39409746      -0.36717933      -5.67754179       0.71983098
H       -0.12777626      -1.08709100      -0.27173906      -0.09983809      -0.68477404      -0.31592152       0.49997820       5.85175532       0.23669326
3
Properties=species:S:1:pos:R:3:momenta:R:3:forces:R:3 energy=-2077.605799275272 pbc="F F F"
O        0.00618620       0.00268284       0.10504205      -0.06724048      -0.03736960      -0.42131768      -0.19611295      -0.06243765      -1.62233135
H        0.03504566       1.05511761      -0.41552658      -0.00887053      -0.66929509       0.23324159      -0.36307611      -5.78274023       1.10553769
H       -0.13463349      -1.08871599      -0.30662822       0.07611101       0.70666468       0.18807609       0.55831459       5.85371931       0.51559298
3
Properties=species:S:1:pos:R:3:momenta:R:3:forces:R:3 energy=-2078.9452430295223 pbc="F F F"
O        0.00547610       0.00273475       0.10398347       0.07445776       0.07032621       0.80397612      -0.08071479      -0.03721605      -0.73335725
H        0.03761131       0.92403801      -0.40370256       0.03521573       0.60737852      -0.43521342      -0.31005024      -4.00048952       0.58285172
H       -0.12640730      -0.95995280      -0.30140868      -0.10967349      -0.67770473      -0.36876270       0.39096255       4.04375966       0.15117136
3
Properties=species:S:1:pos:R:3:momenta:R:3:forces:R:3 energy=-2077.0670859295637 pbc="F F F"
O        0.00659967       0.00407758       0.11800130      -0.03888359       0.00592181      -0.25853331      -0.34702710      -0.20684675      -3.34760305
H        0.04863505       1.06203586      -0.52288483      -0.00364175      -0.38547683       0.15236628      -0.36893228      -5.69738280       1.98344870
H       -0.15526515      -1.12068388      -0.40504982       0.04252534       0.37955502       0.10616703       0.71553106       5.90458627       1.36436031
3
Properties=species:S:1:pos:R:3:momenta:R:3:forces:R:3 energy=-2079.039312585562 pbc="F F F"
O        0.00016629       0.00024454       0.11269571       0.00377767      -0.01139071       0.64034960      -0.00242537      -0.00884864      -2.11136042
H       -0.00332190       0.92239772      -0.42224544      -0.00324055       0.72398450      -0.31944014       0.01356794      -3.98109002       1.05037690
H        0.00236829      -0.92141120      -0.42412598      -0.00053713      -0.71259379      -0.32090946      -0.01105286       3.99016116       1.06435321
3
Properties=species:S:1:pos:R:3:momenta:R:3:forces:R:3 energy=-2077.216548800852 pbc="F F F"
O        0.00021972      -0.00004562       0.11901786       0.00248279      -0.00866468      -0.55749620      -0.00924166       0.02415795      -3.52227335
H       -0.00427236       1.08578239      -0.47209788       0.00230340      -0.35216714       0.27781701       0.02018222      -5.78196609       1.75828371
H        0.00153851      -1.07999662      -0.47480136      -0.00478619       0.36083183       0.27967919      -0.01074935       5.75822154       1.76926686
3
Properties=species:S:1:pos:R:3:momenta:R:3:forces:R:3 energy=-2079.29673095507 pbc="F F F"
O        0.00026635       0.00029313       0.10021028       0.00502980       0.02467013       0.18982525       0.00586283      -0.05684298       1.11604219
H       -0.00342865       0.89125164      -0.32186290      -0.00124703       0.41669766      -0.08714990       0.00084353      -2.06821036      -0.57570840
H       -0.00027037      -0.88987157      -0.32670853      -0.00378278      -0.44136778      -0.10267535      -0.00646963       2.12517166      -0.53765643
