3
Properties=species:S:1:pos:R:3:momenta:R:3:forces:R:3 energy=-2077.658841607259 pbc="F F F"
O       -0.00030466       0.00062990       0.06452048      -0.01275846       0.00491444      -0.07606685      -0.00894436      -0.13440378       0.68607188
H       -0.00079171       1.06395414      -0.04118071       0.00551162       0.79682632       0.03794749       0.01390758      -5.05693953      -0.35315575
H        0.00305867      -1.06799459      -0.04150986       0.00724685      -0.80174077       0.03811936      -0.00481641       5.19126994      -0.33651882
