3
Properties=species:S:1:pos:R:3:momenta:R:3:forces:R:3 energy=-2079.314476694558 pbc="F F F"
O        0.00162096      -0.01091629       0.00423842       0.02336141       0.13730486       0.61874182      -0.07607641      -0.24226113      -0.43244705
H        0.45555536       0.83054058       0.28531067      -0.22015964      -0.44259998      -0.24234068      -1.24684692      -1.91610357       0.69420227
H       -0.47620358      -0.65551187       0.60272133       0.19679822       0.30529512      -0.37640114       1.31983881       2.15558054      -0.25972168
