3
Properties=species:S:1:pos:R:3:momenta:R:3:forces:R:3 energy=-2077.1372128756793 pbc="F F F"
O        0.00242948      -0.01372189      -0.00242624       0.02093993      -0.11422727      -0.28679761      -0.07671981       0.55102907       2.19115056
H        0.57103031       1.02862220       0.29902895       0.27197687       0.47322114       0.05571973      -3.13631780      -5.24024666      -0.03370063
H       -0.60527475      -0.80955620       0.69365900      -0.29291680      -0.35899387       0.23107789       3.21294295       4.68454717      -2.15641443
