3
Properties=species:S:1:pos:R:3:momenta:R:3:forces:R:3 energy=-2077.066847565387 pbc="F F F"
O        0.00486041      -0.01065715       0.01412586      -0.03619622       0.11873664       0.55734945      -0.09445210      -0.02851881       0.28113109
H        0.58495201       1.00676595       0.15499462      -0.30457784      -0.56290665      -0.16748281      -3.34114123      -5.00409395       1.01921917
H       -0.65626389      -0.83341816       0.57373596       0.34077406       0.44417001      -0.38986664       3.43628884       5.02717872      -1.30208957
