3
Properties=species:S:1:pos:R:3:momenta:R:3:forces:R:3 energy=-2077.1116546742833 pbc="F F F"
O        0.00034839      -0.01415203      -0.02198377       0.01876258       0.05502610       0.33825615      -0.01712279       0.93171627       4.96083041
H        0.52521433       1.00934351       0.46940684      -0.07890285      -0.18617612      -0.14663146      -2.71168484      -5.09574096      -1.53542658
H       -0.52729206      -0.78486855       0.83683108       0.06014026       0.13115003      -0.19162470       2.71955378       4.16296533      -3.42888657
