3
Properties=species:S:1:pos:R:3:momenta:R:3:forces:R:3 energy=-2075.5681543277487 pbc="F F F"
O       -0.00066175       0.00036904       0.06010883      -0.00513230      -0.00932813      -0.24792595      -0.03339181      -0.00799655       0.50918130
H        0.00154542       1.23216191      -0.00690799       0.00255630      -0.43666811       0.12382581       0.02876178      -6.78871489      -0.25248639
H        0.00588433      -1.23277887      -0.00576056       0.00257600       0.44599624       0.12410014       0.00479216       6.79669651      -0.25810076
