3
Properties=species:S:1:pos:R:3:momenta:R:3:forces:R:3 energy=-2077.6837170374283 pbc="F F F"
O       -0.00573061      -0.00679917      -0.00941513       0.06957770       0.05194879       0.50698704       0.26783905       0.28625981       3.19900009
H        0.42620306       1.02005582       0.39444054      -0.24006190      -0.60246590      -0.16808456      -2.16960948      -5.31546272      -0.73061457
H       -0.33334098      -0.91036700       0.71099588       0.17048420       0.55051710      -0.33890249       1.90024121       5.03401410      -2.46775807
