3
Properties=species:S:1:pos:R:3:momenta:R:3:forces:R:3 energy=-2079.4882088498744 pbc="F F F"
O       -0.00038615      -0.01138777      -0.00849874       0.03411384      -0.09185343      -0.59447625      -0.05499638       0.17921021       1.55537902
H        0.41725769       0.81320373       0.40377622       0.27723463       0.50669462       0.18075494      -1.10680682      -2.05871822      -0.35033870
H       -0.40844803      -0.63028010       0.68691164      -0.31134847      -0.41484120       0.41372131       1.15485407       1.88062192      -1.20886752
