3
Properties=species:S:1:pos:R:3:momenta:R:3:forces:R:3 energy=-2075.1718225061236 pbc="F F F"
O       -0.00141176       0.00057560       0.04366959      -0.01481231       0.00578267      -0.19772379      -0.09359508      -0.01835332      -0.68492125
H        0.00666016       1.26086497       0.12339994       0.00670033      -0.01577879       0.09616755       0.06339504      -6.78616919       0.35033852
H        0.01271050      -1.26367940       0.12578320       0.00811199       0.00999612       0.10155624       0.03051072       6.80449644       0.33526523
