3
Properties=species:S:1:pos:R:3:momenta:R:3:forces:R:3 energy=-2079.2645132618645 pbc="F F F"
O       -0.00504119      -0.00787584      -0.00386064      -0.06599817      -0.16361529      -0.81569588       0.23931957       0.48552780       1.26129147
H        0.37556613       0.88303466       0.37684126       0.27238670       0.60735777       0.32544031      -1.34457656      -3.23452264      -0.24485499
H       -0.29273046      -0.75556586       0.64109485      -0.20638853      -0.44374248       0.49025557       1.10500659       2.75551617      -1.02179408
