3
Properties=species:S:1:pos:R:3:momenta:R:3:forces:R:3 energy=-2078.445013776955 pbc="F F F"
O        0.00230845      -0.01224553       0.00815991      -0.00459029       0.17744708       0.75400221       0.13935280       0.40375730       0.52608014
H        0.52185671       0.92764905       0.23493159      -0.36103143      -0.68014867      -0.25708388      -2.71709372      -4.30988717       0.55138570
H       -0.55481937      -0.73232878       0.59092797       0.36562172       0.50270159      -0.49691833       2.57952551       3.89797297      -1.07812957
