3
Properties=species:S:1:pos:R:3:momenta:R:3:forces:R:3 energy=-2076.9144941660606 pbc="F F F"
O        0.00005268      -0.00006878       0.07389251      -0.01063925       0.00902387      -0.45780912       0.00727962       0.08951665       0.76115504
H       -0.00449316       1.13978958      -0.11547633       0.00852678      -0.73436295       0.22444125       0.01064944      -6.25423104      -0.37516912
H        0.00073251      -1.13252454      -0.11710910       0.00211246       0.72533908       0.23336787      -0.01810875       6.16474550      -0.38368474
