3
Properties=species:S:1:pos:R:3:momenta:R:3:forces:R:3 energy=-2078.9243712906073 pbc="F F F"
O       -0.00151293      -0.01179471      -0.01831633      -0.00463840      -0.18018160      -0.87944544       0.05369881       0.66151011       4.47273500
H        0.43054027       0.86645976       0.47768189       0.33793426       0.66497409       0.32986436      -1.85748444      -3.70541574      -1.57052833
H       -0.40426884      -0.67590012       0.76719656      -0.33329586      -0.48479249       0.54958108       1.79855001       3.04036502      -2.90563770
