3
Properties=species:S:1:pos:R:3:momenta:R:3:forces:R:3 energy=-2076.559278203048 pbc="F F F"
O        0.00044289       0.00042972       0.10985288       0.00294041       0.00037620      -0.19384431      -0.01479564      -0.01426322      -2.05702086
H       -0.00488421       1.15549812      -0.39604789      -0.00088430      -0.02189104       0.09704692       0.01589117      -6.10090011       1.00495354
H       -0.00172232      -1.15908249      -0.40440495      -0.00205611       0.02151484       0.09679739      -0.00078698       6.11519849       1.05146797
