3
Properties=species:S:1:pos:R:3:momenta:R:3:forces:R:3 energy=-2077.4055065724338 pbc="F F F"
O       -0.00416200      -0.01135415      -0.02914586      -0.00958297      -0.06789430      -0.50188965       0.31053822       0.85586936       6.14569441
H        0.45856585       0.97897697       0.55053228       0.15592785       0.30016596       0.19879325      -2.28626741      -4.87405901      -2.27912503
H       -0.39181633      -0.79475929       0.86699818      -0.14634488      -0.23227166       0.30309640       1.97550438       4.01518523      -3.86772429
