3
Properties=species:S:1:pos:R:3:momenta:R:3:forces:R:3 energy=-2079.0780367883276 pbc="F F F"
O        0.00032466       0.00009800       0.09110051       0.00066410      -0.03173989      -0.37967915       0.02105765      -0.03840353       2.08515218
H       -0.00443699       0.91282906      -0.24854134      -0.00148205      -0.16947524       0.18485605      -0.00772227      -1.79744191      -1.05522750
H       -0.00171148      -0.91104267      -0.25473935       0.00081796       0.20121513       0.19482309      -0.01302498       1.83514692      -1.03052123
