3
Properties=species:S:1:pos:R:3:momenta:R:3:forces:R:3 energy=-2079.333044341634 pbc="F F F"
O       -0.00306061      -0.00965718      -0.01616614       0.04194791       0.08423329       0.86451806       0.03141008       0.23617251       3.47890832
H        0.39215360       0.82382268       0.47098188      -0.26691331      -0.59561293      -0.32357247      -1.25669705      -2.63104863      -1.17940930
H       -0.34193974      -0.66626759       0.73979019       0.22496540       0.51137964      -0.54094558       1.22370834       2.39255930      -2.29983094
