3
Properties=species:S:1:pos:R:3:momenta:R:3:forces:R:3 energy=-2076.8982658703035 pbc="F F F"
O        0.00078532      -0.01522311      -0.01428088       0.02930652      -0.00631080      -0.03223959      -0.03982006       0.85017143       3.77408289
H        0.56305676       1.04572234       0.40078193       0.08340653       0.12906210      -0.02180341      -2.95738224      -5.26805750      -0.88846246
H       -0.57212733      -0.80318307       0.78175400      -0.11271306      -0.12275130       0.05404300       2.99013321       4.41851432      -2.88554747
