3
Properties=species:S:1:pos:R:3:momenta:R:3:forces:R:3 energy=-2079.6042058323737 pbc="F F F"
O       -0.00417698      -0.00768386      -0.00519852      -0.00091603      -0.03150992      -0.35501684      -0.12702096      -0.27498668      -0.30331901
H        0.35282896       0.80105241       0.39102943       0.09128950       0.15597521       0.14081024      -0.28524007      -0.66526286       0.37375791
H       -0.28674950      -0.67560664       0.64655353      -0.09037346      -0.12446529       0.21420660       0.41085100       0.94564929      -0.07575854
