3
Properties=species:S:1:pos:R:3:momenta:R:3:forces:R:3 energy=-2076.381543633317 pbc="F F F"
O        0.00043801      -0.00012845       0.09621432       0.00240885       0.01124915       0.05306393      -0.00590857       0.01384379      -0.44592949
H       -0.00662123       1.18656455      -0.28808749      -0.00109210       0.36414309      -0.02132236       0.01385076      -6.31820788       0.20102131
H       -0.00253137      -1.18045558      -0.29661975      -0.00131675      -0.37539224      -0.03174157      -0.00802938       6.30368844       0.24293836
