3
Properties=species:S:1:pos:R:3:momenta:R:3:forces:R:3 energy=-2076.777498951103 pbc="F F F"
O        0.00029453      -0.00004801       0.08008090       0.00021105      -0.01109245       0.09433034       0.00805169       0.04110961       0.64457795
H       -0.00543121       1.15309420      -0.16165652      -0.00325149       0.71858317      -0.05070816       0.00951123      -6.32584051      -0.33262227
H       -0.00046819      -1.14735707      -0.16818222       0.00304044      -0.70749073      -0.04362219      -0.01785236       6.28481695      -0.30719598
