3
Properties=species:S:1:pos:R:3:momenta:R:3:forces:R:3 energy=-2077.337239498021 pbc="F F F"
O       -0.00356593      -0.00035588       0.01008534       0.03480607      -0.00478940       0.28311685       0.03495364       0.09308110       0.45702970
H        0.01824124       1.11271032       0.38788520      -0.01579176      -0.71367820      -0.13795365       0.02635012      -6.07733079      -0.22521834
H        0.03483594      -1.10077325       0.39399926      -0.01901430       0.71846760      -0.14516320      -0.06175622       5.98390856      -0.22895385
