3
Properties=species:S:1:pos:R:3:momenta:R:3:forces:R:3 energy=-2075.9140469867134 pbc="F F F"
O       -0.00275187      -0.00000434       0.02777987      -0.03146552       0.00277750      -0.35180674      -0.08103179       0.02207528      -0.82753859
H        0.01465726       1.21901166       0.24896285       0.01120007       0.40486627       0.17212387       0.06897534      -6.55488921       0.42188883
H        0.02495687      -1.21300126       0.25366424       0.02026545      -0.40764377       0.17968287       0.01412003       6.53274073       0.40269469
