3
Properties=species:S:1:pos:R:3:momenta:R:3:forces:R:3 energy=-2076.8836598185494 pbc="F F F"
O       -0.00401442       0.00047163      -0.00533033       0.01895064      -0.00714104       0.18803730       0.14480626      -0.02006286       2.27879343
H        0.01617371       1.12790204       0.50674488      -0.00813956      -0.39286577      -0.09251907      -0.00176257      -6.02871994      -1.10189749
H        0.04309798      -1.12974134       0.51951282      -0.01081109       0.40000680      -0.09551823      -0.14624557       6.05015861      -1.17723435
