3
Properties=species:S:1:pos:R:3:momenta:R:3:forces:R:3 energy=-2077.3210337420805 pbc="F F F"
O       -0.00333257       0.00007976       0.01577067      -0.04530222      -0.01919524      -0.61793200      -0.00563591       0.02186930      -0.07449638
H        0.01797652       1.11125706       0.34253637       0.01513022       0.69694805       0.30784089       0.04263792      -6.03819160       0.05285560
H        0.03258560      -1.10647970       0.34973787       0.03017201      -0.67775281       0.31009111      -0.03620436       6.01602069       0.02049518
