3
Properties=species:S:1:pos:R:3:momenta:R:3:forces:R:3 energy=-2076.864193023114 pbc="F F F"
O       -0.00421180      -0.00020965      -0.01692704      -0.00094483       0.01078043      -0.11080083       0.21582694       0.03640341       3.90311990
H        0.01349857       1.10836395       0.59960319      -0.00348727      -0.04336642       0.05017532      -0.01883549      -5.78275844      -1.91831596
H        0.04829902      -1.09754837       0.61331342       0.00443210       0.03258599       0.06062551      -0.20048148       5.74810250      -1.99022714
