3
Properties=species:S:1:pos:R:3:momenta:R:3:forces:R:3 energy=-2078.717805607004 pbc="F F F"
O       -0.00326048       0.00057842       0.00840382      -0.04188705       0.02158411      -0.75994964      -0.00384833      -0.20882887      -0.03481735
H        0.01462199       0.97522804       0.39855991       0.00869006       0.65259768       0.37279572       0.04564419      -4.19454451       0.08544959
H        0.03385848      -0.97795594       0.40967615       0.03319699      -0.67418179       0.38715392      -0.04490133       4.40365216      -0.04830499
