3
Properties=species:S:1:pos:R:3:momenta:R:3:forces:R:3 energy=-2079.533691779094 pbc="F F F"
O       -0.00331973       0.00012293      -0.00300735       0.01397738      -0.00996047       0.19033395      -0.02778682      -0.14487090      -0.55283221
H        0.00851718       0.84241383       0.48852825      -0.00474472      -0.31418770      -0.09031903       0.03961870      -1.26589790       0.33001035
H        0.03844978      -0.83741000       0.50185253      -0.00923267       0.32414817      -0.10001491      -0.01277176       1.41273273       0.22320986
