3
Properties=species:S:1:pos:R:3:momenta:R:3:forces:R:3 energy=-2078.375927944319 pbc="F F F"
O       -0.00156581       0.00039370       0.04001589      -0.01188761      -0.02542096      -0.17847628      -0.14024760      -0.10174707      -1.26773250
H        0.00824142       0.97391312       0.15168820       0.00471121      -0.36017915       0.09000364       0.07783615      -2.24196842       0.64529442
H        0.01379092      -0.97483954       0.15456076       0.00717640       0.38560011       0.08847264       0.06335224       2.34367250       0.62560768
