3
Properties=species:S:1:pos:R:3:momenta:R:3:forces:R:3 energy=-2078.0378469491257 pbc="F F F"
O       -0.00268389       0.00038600       0.02625897       0.02003008       0.01289273       0.12700959      -0.08865953      -0.03676442      -0.95795768
H        0.01451120       1.04059357       0.26000143      -0.00855320      -0.80191153      -0.06338419       0.07071535      -4.88319117       0.49589355
H        0.02517304      -1.03942984       0.26672142      -0.01147688       0.78901881      -0.06362540       0.01969721       4.91978025       0.45606480
