3
Properties=species:S:1:pos:R:3:momenta:R:3:forces:R:3 energy=-2078.8967964105072 pbc="F F F"
O       -0.00427892      -0.00078728      -0.02197220      -0.05133850      -0.01309706      -0.98946202       0.25629852       0.14428396       4.92685054
H        0.01137104       0.88849197       0.64095489       0.01087797       0.64412386       0.48713862      -0.04567392      -3.88886475      -2.46567587
H        0.04988482      -0.87166743       0.65204264       0.04046053      -0.63102680       0.50232340      -0.20947897       3.74291815      -2.45433245
