3
Properties=species:S:1:pos:R:3:momenta:R:3:forces:R:3 energy=-2077.8152656767884 pbc="F F F"
O       -0.00447884      -0.00066720      -0.03011171       0.04294071       0.01734895       0.70850684       0.32439470       0.06705296       6.32105433
H        0.01209472       0.96429827       0.70111369      -0.01024767      -0.48483391      -0.35731417      -0.05608776      -4.76804821      -3.11276010
H        0.05481287      -0.94966306       0.71901870      -0.03269304       0.46748496      -0.35119267      -0.26748241       4.69910330      -3.20083272
