3
Properties=species:S:1:pos:R:3:momenta:R:3:forces:R:3 energy=-2077.2660301396504 pbc="F F F"
O       -0.00400464      -0.00143098      -0.03290184       0.02342602      -0.00681020       0.36548337       0.28953266       0.11239495       6.47191675
H        0.00691610       1.00971884       0.72082758      -0.00653512      -0.21114927      -0.17972437      -0.02903310      -5.00245080      -3.17622459
H        0.05344407      -0.98487783       0.74311711      -0.01689091       0.21795946      -0.18575901      -0.26000644       4.88815621      -3.28902744
