3
Properties=species:S:1:pos:R:3:momenta:R:3:forces:R:3 energy=-2079.324037896407 pbc="F F F"
O       -0.00384973      -0.00057648      -0.01292419       0.03946773       0.02735616       0.73711248       0.13711147       0.22202599       2.66208919
H        0.01010401       0.87205886       0.56921192      -0.00999813      -0.66246317      -0.37056223      -0.01093315      -3.18536740      -1.37456752
H        0.04453588      -0.85599617       0.57801172      -0.02946959       0.63510701      -0.36655025      -0.12676991       2.96298403      -1.28133678
