3
Properties=species:S:1:pos:R:3:momenta:R:3:forces:R:3 energy=-2077.610665560198 pbc="F F F"
O        0.00014438       0.00017492       0.13541256       0.00168937       0.00462653       0.53823647      -0.00330857      -0.01306051      -6.20847751
H       -0.00142950       0.97865805      -0.60361549      -0.00335629       0.42039635      -0.26847702       0.00755787      -4.89993333       3.09783368
H        0.00092848      -0.98080843      -0.60405326       0.00166693      -0.42502288      -0.26975945      -0.00425027       4.91300439       3.10197703
