3
Properties=species:S:1:pos:R:3:momenta:R:3:forces:R:3 energy=-2079.651078745287 pbc="F F F"
O       -0.00288894      -0.00099830      -0.01117713       0.00096263       0.03208056      -0.15244063       0.00761776       0.00266510       0.15821946
H        0.00243448       0.79186582       0.54777354      -0.00509610       0.15049590       0.05363425       0.00787560      -0.47152337      -0.06866507
H        0.03952857      -0.77546376       0.57142453       0.00413348      -0.18257646       0.09880637      -0.01406845       0.46773611      -0.08181183
