3
Properties=species:S:1:pos:R:3:momenta:R:3:forces:R:3 energy=-2078.697010722567 pbc="F F F"
O        0.00082234      -0.00079268       0.00282090       0.03749296       0.00933075      -0.48907066      -0.01338326      -0.20420525       0.80135744
H       -0.02284882       0.98419671       0.41554727      -0.02579364       0.75701819       0.21297368       0.07057645      -4.46243936      -0.20073366
H        0.00470808      -0.96842350       0.48007713      -0.01169932      -0.76634894       0.27609699      -0.05602448       4.66617891      -0.60246419
