3
Properties=species:S:1:pos:R:3:momenta:R:3:forces:R:3 energy=-2076.065349301682 pbc="F F F"
O        0.00318963      -0.00098666       0.01101942       0.01081978       0.02594972       0.20283389      -0.01995188      -0.00501397       0.22315556
H       -0.03248771       1.21800442       0.34270381       0.00313357      -0.04393803      -0.10415284       0.03488060      -6.33789706       0.10420045
H       -0.02275707      -1.19836048       0.42449977      -0.01395336       0.01798831      -0.09868105      -0.01600431       6.33862805      -0.32708264
