3
Properties=species:S:1:pos:R:3:momenta:R:3:forces:R:3 energy=-2079.1226508826994 pbc="F F F"
O       -0.00138655      -0.00131335      -0.00905107       0.03788678       0.03383242       0.91442278       0.03836950       0.01034509       2.30994825
H       -0.00805321       0.91828327       0.51807657      -0.00681839      -0.64166459      -0.45213021       0.04615533      -3.76769607      -1.03935818
H        0.02336195      -0.89421507       0.56632668      -0.03106840       0.60783217      -0.46229257      -0.08500015       3.76277301      -1.27099133
