3
Properties=species:S:1:pos:R:3:momenta:R:3:forces:R:3 energy=-2078.958198417103 pbc="F F F"
O        0.00190588      -0.00128944       0.01627225       0.03986068      -0.01386929      -0.08306437       0.10694291       0.17192888      -1.80950092
H       -0.02477498       0.94395538       0.31164606      -0.01388238       0.46291089       0.02707674      -0.03152683      -2.50023922       0.93806982
H       -0.01025615      -0.92000432       0.37125290      -0.02597830      -0.44904160       0.05598763      -0.07425799       2.32146499       0.87191724
