3
Properties=species:S:1:pos:R:3:momenta:R:3:forces:R:3 energy=-2077.994288808371 pbc="F F F"
O       -0.00055607      -0.00194643      -0.01142298       0.02049293      -0.03714150      -0.58127023       0.01242866       0.13639803       3.32706199
H       -0.01546271       1.03559284       0.53216524      -0.02148510       0.68749992       0.27114863       0.08453924      -5.47155650      -1.51871570
H        0.01880912      -1.00276021       0.58978785       0.00099217      -0.65035843       0.31012160      -0.09705465       5.34103048      -1.81104386
