3
Properties=species:S:1:pos:R:3:momenta:R:3:forces:R:3 energy=-2079.1177446957045 pbc="F F F"
O        0.00017364       0.00028622       0.12303162       0.00171014      -0.00780427      -0.98738740      -0.00607701      -0.06893351      -3.90096786
H       -0.00242646       0.87326544      -0.50513102      -0.00140396      -0.60918994       0.49041714       0.00953141      -3.52811834       1.92515681
H        0.00077831      -0.87667585      -0.50563252      -0.00030618       0.61699421       0.49697026      -0.00345306       3.59699827       1.96779713
