3
Properties=species:S:1:pos:R:3:momenta:R:3:forces:R:3 energy=-2076.543497511053 pbc="F F F"
O        0.00443137      -0.00047153       0.04823089      -0.05384597      -0.00423873       0.25946451       0.26117594       0.08438544      -0.25418492
H       -0.01022263       1.16367404       0.04537253       0.02495456      -0.74331247      -0.10602009      -0.27747162      -6.47043326       0.36288731
H       -0.06348424      -1.15192576       0.13072106       0.02889141       0.74755119      -0.15344442       0.01388274       6.38562625      -0.10681220
