3
Properties=species:S:1:pos:R:3:momenta:R:3:forces:R:3 energy=-2078.624970267241 pbc="F F F"
O        0.00423638       0.00144556       0.07730192      -0.02458132      -0.01792125       0.04175332       0.32745932      -0.23992778       1.91487928
H        0.01799695       0.94820092      -0.18041918       0.00231828      -0.42744613      -0.00696887      -0.30503526      -2.28141760      -0.89242662
H       -0.08895477      -0.96600730      -0.09988613       0.02226304       0.44536738      -0.03478445      -0.02379889       2.51529597      -1.02018083
