3
Properties=species:S:1:pos:R:3:momenta:R:3:forces:R:3 energy=-2075.5428158570153 pbc="F F F"
O        0.00540238       0.00089928       0.07849445       0.00911099       0.03354378       0.18552564       0.18878192       0.02951694       0.87079456
H        0.01766339       1.23728463      -0.20303013       0.00789066      -0.00339057      -0.08984169      -0.42155850      -6.53094923      -0.15701973
H       -0.10685937      -1.24741437      -0.09753363      -0.01700165      -0.03015321      -0.09568395       0.23098456       6.49622568      -0.71229487
