3
Properties=species:S:1:pos:R:3:momenta:R:3:forces:R:3 energy=-2076.3947944161396 pbc="F F F"
O        0.00575186       0.00089527       0.09170935       0.04528736       0.00021623       0.42721257      -0.00645904       0.05475147      -0.04892822
H        0.02618539       1.17464766      -0.30750225       0.01496409       0.41715137      -0.23515925      -0.39069868      -6.35941854       0.31698837
H       -0.12051857      -1.18480661      -0.20157146      -0.06025145      -0.41736760      -0.19205332       0.39472768       6.30643213      -0.26734145
