3
Properties=species:S:1:pos:R:3:momenta:R:3:forces:R:3 energy=-2078.423258995012 pbc="F F F"
O        0.00378709       0.00015954       0.06684942       0.02695252      -0.03432358       0.31931113       0.42128827       0.37479019       1.39574203
H        0.01024935       0.96671768      -0.09886220       0.01574342       0.31725151      -0.17767282      -0.29721993      -2.30498540      -0.58467305
H       -0.07447515      -0.96675154      -0.01707449      -0.04269594      -0.28292792      -0.14163831      -0.12578891       1.92676154      -0.81244186
