3
Properties=species:S:1:pos:R:3:momenta:R:3:forces:R:3 energy=-2076.952596100673 pbc="F F F"
O        0.00623261       0.00340285       0.12744632      -0.00231286       0.01547304       0.07587838      -0.39000449      -0.20087987      -4.65737427
H        0.06639116       1.04609066      -0.60684229       0.01090001      -0.04714070      -0.03622233      -0.40409694      -5.43532412       2.67859869
H       -0.16533717      -1.09398810      -0.47048584      -0.00858714       0.03166767      -0.03965605       0.79464912       5.63462872       1.97803565
