3
Properties=species:S:1:pos:R:3:momenta:R:3:forces:R:3 energy=-2077.2913332841267 pbc="F F F"
O        0.00582505       0.00498029       0.13215570       0.02517883       0.01194854       0.47294254      -0.40768858      -0.32110611      -5.51751840
H        0.07973031       0.98195853      -0.64001629       0.03559916       0.26918233      -0.26433319      -0.44264966      -5.05170099       3.09103582
H       -0.17316629      -1.05391308      -0.50994845      -0.06077799      -0.28113087      -0.20860936       0.85221018       5.37117910       2.42542684
