3
Properties=species:S:1:pos:R:3:momenta:R:3:forces:R:3 energy=-2078.9452430295223 pbc="F F F"
O        0.00547610       0.00273475       0.10398347       0.07445776       0.07032621       0.80397612      -0.08071479      -0.03721605      -0.73335725
H        0.03761131       0.92403801      -0.40370256       0.03521573       0.60737852      -0.43521342      -0.31005024      -4.00048952       0.58285172
H       -0.12640730      -0.95995280      -0.30140868      -0.10967349      -0.67770473      -0.36876270       0.39096255       4.04375966       0.15117136
