3
Properties=species:S:1:pos:R:3:momenta:R:3:forces:R:3 energy=-2077.605799275272 pbc="F F F"
O        0.00618620       0.00268284       0.10504205      -0.06724048      -0.03736960      -0.42131768      -0.19611295      -0.06243765      -1.62233135
H        0.03504566       1.05511761      -0.41552658      -0.00887053      -0.66929509       0.23324159      -0.36307611      -5.78274023       1.10553769
H       -0.13463349      -1.08871599      -0.30662822       0.07611101       0.70666468       0.18807609       0.55831459       5.85371931       0.51559298
