3
Properties=species:S:1:pos:R:3:momenta:R:3:forces:R:3 energy=-2079.4887067820473 pbc="F F F"
O        0.00482197       0.00273299       0.10626940       0.01692058      -0.04311758       0.46019540       0.08834108       0.21604085       0.74376252
H        0.04643167       0.82695478      -0.42237975       0.03229919       0.27319409      -0.26988209      -0.18721981      -1.57707106      -0.23307579
H       -0.12401628      -0.86482317      -0.32111250      -0.04921976      -0.23007651      -0.19031331       0.09977816       1.36109595      -0.51181636
