3
Properties=species:S:1:pos:R:3:momenta:R:3:forces:R:3 energy=-2079.5878056904553 pbc="F F F"
O        0.00467990       0.00353616       0.11149618      -0.02702064       0.03890863      -0.23109667       0.01876555      -0.02046619       0.27335574
H        0.05733956       0.79070412      -0.46141498      -0.00374189      -0.31150913       0.14274255      -0.13530178      -1.07925358      -0.08058984
H       -0.13114371      -0.83995779      -0.36004883       0.03076253       0.27260050       0.08835412       0.11762138       1.09871567      -0.19427133
