3
Properties=species:S:1:pos:R:3:momenta:R:3:forces:R:3 energy=-2078.3199007524863 pbc="F F F"
O        0.00518350       0.00103115       0.09060592      -0.06023675       0.02610364      -0.32125580       0.06855736       0.28213516       0.36111661
H        0.02642203       1.00999233      -0.29340318      -0.00938149      -0.80457100       0.19594027      -0.35478677      -4.99023544       0.08961174
H       -0.10994750      -1.02052642      -0.19892825       0.06961824       0.77846736       0.12531553       0.28464822       4.71415675      -0.45110449
