3
Properties=species:S:1:pos:R:3:momenta:R:3:forces:R:3 energy=-2079.4926962210116 pbc="F F F"
O        0.00228791       0.00576673       0.11974548       0.00382637       0.08574756       0.71678069      -0.12687392      -0.48449936      -2.21747380
H        0.13234295       0.77052574      -0.53429740       0.11915820       0.49813282      -0.39690965      -0.34261597      -1.96579285       1.16269729
H       -0.16606160      -0.85541451      -0.41272449      -0.12298457      -0.58388038      -0.31987103       0.47170821       2.45545786       1.05795331
