3
Properties=species:S:1:pos:R:3:momenta:R:3:forces:R:3 energy=-2079.5084308910973 pbc="F F F"
O       -0.00047416       0.00609410       0.10984314      -0.03648391      -0.10634243      -0.58928215      -0.08537706      -0.36313299       0.05572477
H        0.18934904       0.78078891      -0.46620087      -0.03938000      -0.30829218       0.30310428      -0.34000259      -1.55100499       0.00547510
H       -0.17746165      -0.87035924      -0.32509035       0.07586391       0.41463461       0.28617788       0.42377049       1.92600211      -0.05841405
