3
Properties=species:S:1:pos:R:3:momenta:R:3:forces:R:3 energy=-2078.6332776505465 pbc="F F F"
O        0.00445782       0.00596920       0.12837699      -0.07011296      -0.05862667      -0.91380991      -0.31425701      -0.53784201      -5.13909226
H        0.10151616       0.85303067      -0.60324155      -0.04495439      -0.61416551       0.49454316      -0.47779995      -3.92888300       2.78862643
H       -0.16959829      -0.94086956      -0.48498226       0.11506735       0.67279218       0.41926676       0.79578136       4.46502987       2.35167933
