3
Properties=species:S:1:pos:R:3:momenta:R:3:forces:R:3 energy=-2077.2636989768907 pbc="F F F"
O       -0.00214199       0.00613187       0.12122125      -0.04098771       0.04860539       0.35559651       0.13456851      -0.27974545      -3.79932800
H        0.26228946       0.99600835      -0.58447657       0.14139510       0.40568265      -0.22207735      -1.36258304      -5.37962857       2.43439348
H       -0.22524040      -1.08545982      -0.38609791      -0.10040739      -0.45428804      -0.13351916       1.22672401       5.66879990       1.36385903
