3
Properties=species:S:1:pos:R:3:momenta:R:3:forces:R:3 energy=-2079.621087263002 pbc="F F F"
O        0.00075592       0.00518222       0.11320870      -0.02530652       0.04864325       0.08651334       0.03849708       0.21536350       0.37439652
H        0.15605107       0.75023007      -0.48925836       0.06495100       0.13089274      -0.05440498      -0.15619483      -0.77486299      -0.06792345
H       -0.16382090      -0.82385816      -0.35528900      -0.03964448      -0.17953598      -0.03210837       0.11722534       0.56993326      -0.30183480
