3
Properties=species:S:1:pos:R:3:momenta:R:3:forces:R:3 energy=-2077.8026717264293 pbc="F F F"
O        0.00316878       0.00519644       0.13415898      -0.04019286      -0.02868251      -0.72032745      -0.21479445      -0.31929365      -5.98715549
H        0.13886495       0.91526222      -0.66461732      -0.04171899      -0.45572496       0.39786055      -0.70698307      -4.61850778       3.39407562
H       -0.18667192      -0.99063333      -0.51087087       0.08191185       0.48440747       0.32246690       0.92472538       4.93707205       2.59521675
