3
Properties=species:S:1:pos:R:3:momenta:R:3:forces:R:3 energy=-2076.3663328349307 pbc="F F F"
O       -0.00592294       0.00744382       0.09545871       0.01817410      -0.03074067      -0.40761654       0.04146180      -0.12909723      -0.37817869
H        0.36660435       1.08020771      -0.39079078      -0.08949055      -0.31873250       0.23642249      -1.71550452      -5.98912030       0.76829631
H       -0.27098890      -1.19134874      -0.17018610       0.07131645       0.34947317       0.17119405       1.67843151       6.11926174      -0.38589911
