3
Properties=species:S:1:pos:R:3:momenta:R:3:forces:R:3 energy=-2078.86271302345 pbc="F F F"
O       -0.00242144       0.00560525       0.10846911       0.01885846      -0.03359023      -0.87424252       0.11647172       0.05130749      -1.55014099
H        0.24478050       0.87940412      -0.47285328      -0.14721591      -0.63699042       0.50433435      -1.08529362      -4.22378481       1.22909658
H       -0.20377378      -0.96215972      -0.29608822       0.12835745       0.67058065       0.36990817       0.96818455       4.17867744       0.31960922
