3
Properties=species:S:1:pos:R:3:momenta:R:3:forces:R:3 energy=-2075.741996184353 pbc="F F F"
O       -0.00933620       0.00408211       0.06495246      -0.08996358      -0.01740623      -0.11910585      -0.50143072       0.25783597       0.62494355
H        0.43614805       1.13122924      -0.16587705       0.20253910       0.47320060       0.00005627      -1.71649140      -6.47646091       0.38671512
H       -0.28427764      -1.19296168       0.08922836      -0.11257552      -0.45579437       0.11904957       2.22191851       6.21764761      -1.01104445
