3
Properties=species:S:1:pos:R:3:momenta:R:3:forces:R:3 energy=-2078.739110301411 pbc="F F F"
O       -0.00544227       0.00414308       0.07979481      -0.08856423      -0.08503504      -0.08360114      -0.33869513       0.69172436       2.07704999
H        0.30589429       0.87201365      -0.24850956       0.15200600       0.34286789      -0.00690266      -0.38632325      -2.21959590      -0.79608792
H       -0.21653031      -0.93268404      -0.06417746      -0.06344178      -0.25783285       0.09050380       0.72530610       1.53177461      -1.27998313
