3
Properties=species:S:1:pos:R:3:momenta:R:3:forces:R:3 energy=-2078.883174515836 pbc="F F F"
O       -0.00624579      -0.00287606       0.01755769       0.09959009       0.04139725       0.16136799      -0.21318239       0.02290275      -1.48141159
H        0.36557470       0.90836440       0.21485807      -0.22843926      -0.56338287      -0.02571036      -0.87311335      -2.75547160       1.09784470
H       -0.26295780      -0.86087162       0.46212925       0.12884917       0.52198562      -0.13565763       1.08343240       2.73044498       0.38471392
