3
Properties=species:S:1:pos:R:3:momenta:R:3:forces:R:3 energy=-2078.1340962046165 pbc="F F F"
O       -0.00806307       0.00038516       0.03765593      -0.08864417      -0.02322854      -0.42773165      -0.40833453       0.36143238      -1.04481081
H        0.38497400       0.95960843       0.06188329       0.26943991       0.65444771       0.12802164      -1.09468214      -4.04262417       0.96519661
H       -0.25470391      -0.96289063       0.29464971      -0.18079574      -0.63121917       0.29971000       1.50355982       3.68766282       0.07883773
