3
Properties=species:S:1:pos:R:3:momenta:R:3:forces:R:3 energy=-2079.29673095507 pbc="F F F"
O        0.00026635       0.00029313       0.10021028       0.00502980       0.02467013       0.18982525       0.00586283      -0.05684298       1.11604219
H       -0.00342865       0.89125164      -0.32186290      -0.00124703       0.41669766      -0.08714990       0.00084353      -2.06821036      -0.57570840
H       -0.00027037      -0.88987157      -0.32670853      -0.00378278      -0.44136778      -0.10267535      -0.00646963       2.12517166      -0.53765643
