3
Properties=species:S:1:pos:R:3:momenta:R:3:forces:R:3 energy=-2075.7425310302956 pbc="F F F"
O       -0.00930331       0.00047368       0.02731389       0.06088718       0.00227477      -0.07536769      -0.27742861      -0.02165672      -0.73948205
H        0.46554542       1.15547962       0.11544120      -0.11886047      -0.29332194       0.06324256      -1.92263613      -6.11721049       1.14060309
H       -0.31464763      -1.16067552       0.40593246       0.05797329       0.29104717       0.01212513       2.20359001       6.14136599      -0.40365644
