3
Properties=species:S:1:pos:R:3:momenta:R:3:forces:R:3 energy=-2078.7305978466516 pbc="F F F"
O       -0.00661916      -0.00060714       0.02840649      -0.02319326      -0.11347346      -0.27569198      -0.63360305      -0.16308063      -2.21040819
H        0.35618439       0.88885259       0.13811769       0.05280154       0.12985218       0.12411304      -0.21298017      -1.47346984       1.31779274
H       -0.24784403      -0.87539494       0.36706125      -0.02960828      -0.01637873       0.15157894       0.84543458       1.63431904       0.89185182
