3
Properties=species:S:1:pos:R:3:momenta:R:3:forces:R:3 energy=-2078.2489982374873 pbc="F F F"
O       -0.00580482      -0.00603845      -0.00272849      -0.05539817      -0.08446178      -0.83486299       0.19549683       0.16703707       2.16001077
H        0.40586202       0.98422794       0.35143116       0.28394397       0.65963564       0.30582723      -1.97150574      -4.96568286      -0.28315032
H       -0.31155364      -0.88590668       0.64853065      -0.22854580      -0.57517386       0.52903576       1.77305169       4.80259500      -1.87445736
